Version 4
SHEET 1 880 680
WIRE 448 -16 256 -16
WIRE 688 -16 448 -16
WIRE 688 16 688 -16
WIRE 256 48 256 -16
WIRE 448 144 448 -16
WIRE 256 160 256 128
WIRE 400 160 256 160
WIRE 256 176 256 160
WIRE 256 272 256 256
WIRE 416 272 256 272
WIRE 448 272 448 240
WIRE 480 272 448 272
WIRE 640 272 480 272
WIRE 256 288 256 272
WIRE 416 304 416 272
WIRE 480 320 480 272
WIRE 640 336 640 272
WIRE -48 368 -224 368
WIRE 128 368 32 368
WIRE 208 368 128 368
WIRE -224 384 -224 368
WIRE 128 400 128 368
WIRE -224 512 -224 464
WIRE 128 512 128 480
WIRE 128 512 -224 512
WIRE 256 512 256 384
WIRE 256 512 128 512
WIRE 288 512 256 512
WIRE 416 512 416 368
WIRE 416 512 288 512
WIRE 480 512 480 400
WIRE 480 512 416 512
WIRE 640 512 640 400
WIRE 640 512 480 512
WIRE 688 512 688 96
WIRE 688 512 640 512
WIRE 288 528 288 512
FLAG 288 528 0
SYMBOL res 240 160 R0
SYMATTR InstName R1
SYMATTR Value 6.2k
SYMBOL res 240 32 R0
SYMATTR InstName R2
SYMATTR Value 6.2k
SYMBOL res 48 352 R90
WINDOW 0 0 56 VBottom 2
WINDOW 3 32 56 VTop 2
SYMATTR InstName R3
SYMATTR Value 6.2k
SYMBOL res 144 496 R180
WINDOW 0 36 76 Left 2
WINDOW 3 36 40 Left 2
SYMATTR InstName R4
SYMATTR Value 6.2k
SYMBOL pmos 400 240 M180
SYMATTR InstName M1
SYMATTR Value SQ4917EY_Q2
SYMBOL nmos 208 288 R0
SYMATTR InstName M2
SYMATTR Value 2N7002
SYMBOL res 464 304 R0
SYMATTR InstName R5
SYMATTR Value 120
SYMBOL voltage -224 368 R0
WINDOW 123 0 0 Left 0
WINDOW 39 0 0 Left 0
SYMATTR InstName V1
SYMATTR Value 20V
SYMBOL voltage 688 0 R0
WINDOW 123 0 0 Left 0
WINDOW 39 0 0 Left 0
SYMATTR InstName V2
SYMATTR Value 23V
SYMBOL diode 656 400 R180
WINDOW 0 24 64 Left 2
WINDOW 3 -24 -39 Left 2
SYMATTR InstName D1
SYMATTR Value 1N4007
SYMBOL diode 432 368 R180
WINDOW 0 24 64 Left 2
WINDOW 3 -23 -75 Left 2
SYMATTR InstName D2
SYMATTR Value 1N4007
TEXT -256 552 Left 2 !.tran .1
